LTspice 26.0.1 for Windows
Circuit: D:\School\tud\tn\def\opdrachten-DEF-D\FysiekeOntwerpopdrachten\2OntwerpEenSensorCondensator\LTSpiceTemplateCapacitor.net
Start Time: Wed Feb 25 15:26:14 2026
solver = Normal
Maximum thread count: 20
tnom = 27
temp = 27
method = trap
.OP point found by inspection.
.OP point found by inspection.
Total elapsed time: 0.076 seconds.

Files loaded:
D:\School\tud\tn\def\opdrachten-DEF-D\FysiekeOntwerpopdrachten\2OntwerpEenSensorCondensator\LTSpiceTemplateCapacitor.net

